Circuit: * C:\Users\ACER\Desktop\minor_project\jaypal_212vl016\q1.asc

Number of points per decade reduced from 100000 to 7100.

Date: Fri May 06 18:05:11 2022
Total elapsed time: 0.300 seconds.

tnom = 27
temp = 27
method = trap
totiter = 0
traniter = 0
tranpoints = 0
accept = 0
rejected = 0
matrix size = 5
fillins = 0
solver = Normal

