Circuit: * C:\Users\ACER\Desktop\minor_project\jaypal_212vl016\q2.asc

Number of points per decade reduced from -2147483648 to 7848.
ERROR: Node N004 is floating and connected to current source G7
ERROR: Node N002 is floating and connected to current source G13
ERROR: Node 2VOUT is floating and connected to current source G3
ERROR: Node N001 is floating and connected to current source G8
ERROR: Node N003 is floating and connected to current source G14


Date: Fri May 06 18:12:18 2022
Total elapsed time: 0.461 seconds.

tnom = 27
temp = 27
method = trap
totiter = 0
traniter = 0
tranpoints = 0
accept = 0
rejected = 0
matrix size = 7
fillins = 0
solver = Normal

