Circuit: * C:\Users\ACER\Desktop\minor_project\jaypal_212vl016\q3b.asc

Number of points per decade reduced from -2147483648 to 6899.

Date: Fri May 06 18:32:48 2022
Total elapsed time: 0.539 seconds.

tnom = 27
temp = 27
method = trap
totiter = 0
traniter = 0
tranpoints = 0
accept = 0
rejected = 0
matrix size = 7
fillins = 0
solver = Normal

